
---------- Begin Simulation Statistics ----------
sim_seconds                                  0.084235                       # Number of seconds simulated
sim_ticks                                 84234756438                       # Number of ticks simulated
final_tick                                84285097470                       # Number of ticks from beginning of simulation (restored from checkpoints and never reset)
sim_freq                                 1000000000000                       # Frequency of simulated ticks
host_inst_rate                                  57542                       # Simulator instruction rate (inst/s)
host_op_rate                                    70720                       # Simulator op (including micro ops) rate (op/s)
host_tick_rate                              131992488                       # Simulator tick rate (ticks/s)
host_mem_usage                                 806592                       # Number of bytes of host memory used
host_seconds                                   638.18                       # Real time elapsed on the host
sim_insts                                    36722189                       # Number of instructions simulated
sim_ops                                      45132084                       # Number of ops (including micro ops) simulated
system.voltage_domain.voltage                       1                       # Voltage in Volts
system.clk_domain.clock                          1000                       # Clock period in ticks
system.mem_ctrls.bytes_read::switch_cpus_1.inst          896                       # Number of bytes read from this memory
system.mem_ctrls.bytes_read::switch_cpus_1.data     67183744                       # Number of bytes read from this memory
system.mem_ctrls.bytes_read::total           67184640                       # Number of bytes read from this memory
system.mem_ctrls.bytes_inst_read::switch_cpus_1.inst          896                       # Number of instructions bytes read from this memory
system.mem_ctrls.bytes_inst_read::total           896                       # Number of instructions bytes read from this memory
system.mem_ctrls.bytes_written::writebacks         5760                       # Number of bytes written to this memory
system.mem_ctrls.bytes_written::total            5760                       # Number of bytes written to this memory
system.mem_ctrls.num_reads::switch_cpus_1.inst           14                       # Number of read requests responded to by this memory
system.mem_ctrls.num_reads::switch_cpus_1.data      1049746                       # Number of read requests responded to by this memory
system.mem_ctrls.num_reads::total             1049760                       # Number of read requests responded to by this memory
system.mem_ctrls.num_writes::writebacks            90                       # Number of write requests responded to by this memory
system.mem_ctrls.num_writes::total                 90                       # Number of write requests responded to by this memory
system.mem_ctrls.bw_read::switch_cpus_1.inst        10637                       # Total read bandwidth from this memory (bytes/s)
system.mem_ctrls.bw_read::switch_cpus_1.data    797577471                       # Total read bandwidth from this memory (bytes/s)
system.mem_ctrls.bw_read::total             797588108                       # Total read bandwidth from this memory (bytes/s)
system.mem_ctrls.bw_inst_read::switch_cpus_1.inst        10637                       # Instruction read bandwidth from this memory (bytes/s)
system.mem_ctrls.bw_inst_read::total            10637                       # Instruction read bandwidth from this memory (bytes/s)
system.mem_ctrls.bw_write::writebacks           68380                       # Write bandwidth from this memory (bytes/s)
system.mem_ctrls.bw_write::total                68380                       # Write bandwidth from this memory (bytes/s)
system.mem_ctrls.bw_total::writebacks           68380                       # Total bandwidth to/from this memory (bytes/s)
system.mem_ctrls.bw_total::switch_cpus_1.inst        10637                       # Total bandwidth to/from this memory (bytes/s)
system.mem_ctrls.bw_total::switch_cpus_1.data    797577471                       # Total bandwidth to/from this memory (bytes/s)
system.mem_ctrls.bw_total::total            797656488                       # Total bandwidth to/from this memory (bytes/s)
system.mem_ctrls.readReqs                     1049760                       # Number of read requests accepted
system.mem_ctrls.writeReqs                         90                       # Number of write requests accepted
system.mem_ctrls.readBursts                   1049760                       # Number of DRAM read bursts, including those serviced by the write queue
system.mem_ctrls.writeBursts                       90                       # Number of DRAM write bursts, including those merged in the write queue
system.mem_ctrls.bytesReadDRAM               67184640                       # Total number of bytes read from DRAM
system.mem_ctrls.bytesReadWrQ                       0                       # Total number of bytes read from write queue
system.mem_ctrls.bytesWritten                    4096                       # Total number of bytes written to DRAM
system.mem_ctrls.bytesReadSys                67184640                       # Total read bytes from the system interface side
system.mem_ctrls.bytesWrittenSys                 5760                       # Total written bytes from the system interface side
system.mem_ctrls.servicedByWrQ                      0                       # Number of DRAM read bursts serviced by the write queue
system.mem_ctrls.mergedWrBursts                     0                       # Number of DRAM write bursts merged with an existing one
system.mem_ctrls.neitherReadNorWriteReqs            0                       # Number of requests that are neither read nor write
system.mem_ctrls.perBankRdBursts::0             65536                       # Per bank write bursts
system.mem_ctrls.perBankRdBursts::1             65536                       # Per bank write bursts
system.mem_ctrls.perBankRdBursts::2             65541                       # Per bank write bursts
system.mem_ctrls.perBankRdBursts::3             65536                       # Per bank write bursts
system.mem_ctrls.perBankRdBursts::4             65538                       # Per bank write bursts
system.mem_ctrls.perBankRdBursts::5             65536                       # Per bank write bursts
system.mem_ctrls.perBankRdBursts::6             65536                       # Per bank write bursts
system.mem_ctrls.perBankRdBursts::7             65600                       # Per bank write bursts
system.mem_ctrls.perBankRdBursts::8             66645                       # Per bank write bursts
system.mem_ctrls.perBankRdBursts::9             67096                       # Per bank write bursts
system.mem_ctrls.perBankRdBursts::10            66024                       # Per bank write bursts
system.mem_ctrls.perBankRdBursts::11            65536                       # Per bank write bursts
system.mem_ctrls.perBankRdBursts::12            65536                       # Per bank write bursts
system.mem_ctrls.perBankRdBursts::13            64512                       # Per bank write bursts
system.mem_ctrls.perBankRdBursts::14            64512                       # Per bank write bursts
system.mem_ctrls.perBankRdBursts::15            65540                       # Per bank write bursts
system.mem_ctrls.perBankWrBursts::0                 0                       # Per bank write bursts
system.mem_ctrls.perBankWrBursts::1                 0                       # Per bank write bursts
system.mem_ctrls.perBankWrBursts::2                 0                       # Per bank write bursts
system.mem_ctrls.perBankWrBursts::3                 6                       # Per bank write bursts
system.mem_ctrls.perBankWrBursts::4                11                       # Per bank write bursts
system.mem_ctrls.perBankWrBursts::5                 0                       # Per bank write bursts
system.mem_ctrls.perBankWrBursts::6                34                       # Per bank write bursts
system.mem_ctrls.perBankWrBursts::7                 5                       # Per bank write bursts
system.mem_ctrls.perBankWrBursts::8                 0                       # Per bank write bursts
system.mem_ctrls.perBankWrBursts::9                 0                       # Per bank write bursts
system.mem_ctrls.perBankWrBursts::10                0                       # Per bank write bursts
system.mem_ctrls.perBankWrBursts::11                4                       # Per bank write bursts
system.mem_ctrls.perBankWrBursts::12                4                       # Per bank write bursts
system.mem_ctrls.perBankWrBursts::13                0                       # Per bank write bursts
system.mem_ctrls.perBankWrBursts::14                0                       # Per bank write bursts
system.mem_ctrls.perBankWrBursts::15                0                       # Per bank write bursts
system.mem_ctrls.numRdRetry                         0                       # Number of times read queue was full causing retry
system.mem_ctrls.numWrRetry                         0                       # Number of times write queue was full causing retry
system.mem_ctrls.totGap                   84234771726                       # Total gap between requests
system.mem_ctrls.readPktSize::0                     0                       # Read request sizes (log2)
system.mem_ctrls.readPktSize::1                     0                       # Read request sizes (log2)
system.mem_ctrls.readPktSize::2                     0                       # Read request sizes (log2)
system.mem_ctrls.readPktSize::3                     0                       # Read request sizes (log2)
system.mem_ctrls.readPktSize::4                     0                       # Read request sizes (log2)
system.mem_ctrls.readPktSize::5                     0                       # Read request sizes (log2)
system.mem_ctrls.readPktSize::6               1049760                       # Read request sizes (log2)
system.mem_ctrls.writePktSize::0                    0                       # Write request sizes (log2)
system.mem_ctrls.writePktSize::1                    0                       # Write request sizes (log2)
system.mem_ctrls.writePktSize::2                    0                       # Write request sizes (log2)
system.mem_ctrls.writePktSize::3                    0                       # Write request sizes (log2)
system.mem_ctrls.writePktSize::4                    0                       # Write request sizes (log2)
system.mem_ctrls.writePktSize::5                    0                       # Write request sizes (log2)
system.mem_ctrls.writePktSize::6                   90                       # Write request sizes (log2)
system.mem_ctrls.rdQLenPdf::0                 1048576                       # What read queue length does an incoming req see
system.mem_ctrls.rdQLenPdf::1                    1178                       # What read queue length does an incoming req see
system.mem_ctrls.rdQLenPdf::2                       6                       # What read queue length does an incoming req see
system.mem_ctrls.rdQLenPdf::3                       0                       # What read queue length does an incoming req see
system.mem_ctrls.rdQLenPdf::4                       0                       # What read queue length does an incoming req see
system.mem_ctrls.rdQLenPdf::5                       0                       # What read queue length does an incoming req see
system.mem_ctrls.rdQLenPdf::6                       0                       # What read queue length does an incoming req see
system.mem_ctrls.rdQLenPdf::7                       0                       # What read queue length does an incoming req see
system.mem_ctrls.rdQLenPdf::8                       0                       # What read queue length does an incoming req see
system.mem_ctrls.rdQLenPdf::9                       0                       # What read queue length does an incoming req see
system.mem_ctrls.rdQLenPdf::10                      0                       # What read queue length does an incoming req see
system.mem_ctrls.rdQLenPdf::11                      0                       # What read queue length does an incoming req see
system.mem_ctrls.rdQLenPdf::12                      0                       # What read queue length does an incoming req see
system.mem_ctrls.rdQLenPdf::13                      0                       # What read queue length does an incoming req see
system.mem_ctrls.rdQLenPdf::14                      0                       # What read queue length does an incoming req see
system.mem_ctrls.rdQLenPdf::15                      0                       # What read queue length does an incoming req see
system.mem_ctrls.rdQLenPdf::16                      0                       # What read queue length does an incoming req see
system.mem_ctrls.rdQLenPdf::17                      0                       # What read queue length does an incoming req see
system.mem_ctrls.rdQLenPdf::18                      0                       # What read queue length does an incoming req see
system.mem_ctrls.rdQLenPdf::19                      0                       # What read queue length does an incoming req see
system.mem_ctrls.rdQLenPdf::20                      0                       # What read queue length does an incoming req see
system.mem_ctrls.rdQLenPdf::21                      0                       # What read queue length does an incoming req see
system.mem_ctrls.rdQLenPdf::22                      0                       # What read queue length does an incoming req see
system.mem_ctrls.rdQLenPdf::23                      0                       # What read queue length does an incoming req see
system.mem_ctrls.rdQLenPdf::24                      0                       # What read queue length does an incoming req see
system.mem_ctrls.rdQLenPdf::25                      0                       # What read queue length does an incoming req see
system.mem_ctrls.rdQLenPdf::26                      0                       # What read queue length does an incoming req see
system.mem_ctrls.rdQLenPdf::27                      0                       # What read queue length does an incoming req see
system.mem_ctrls.rdQLenPdf::28                      0                       # What read queue length does an incoming req see
system.mem_ctrls.rdQLenPdf::29                      0                       # What read queue length does an incoming req see
system.mem_ctrls.rdQLenPdf::30                      0                       # What read queue length does an incoming req see
system.mem_ctrls.rdQLenPdf::31                      0                       # What read queue length does an incoming req see
system.mem_ctrls.wrQLenPdf::0                       1                       # What write queue length does an incoming req see
system.mem_ctrls.wrQLenPdf::1                       1                       # What write queue length does an incoming req see
system.mem_ctrls.wrQLenPdf::2                       1                       # What write queue length does an incoming req see
system.mem_ctrls.wrQLenPdf::3                       1                       # What write queue length does an incoming req see
system.mem_ctrls.wrQLenPdf::4                       1                       # What write queue length does an incoming req see
system.mem_ctrls.wrQLenPdf::5                       1                       # What write queue length does an incoming req see
system.mem_ctrls.wrQLenPdf::6                       1                       # What write queue length does an incoming req see
system.mem_ctrls.wrQLenPdf::7                       1                       # What write queue length does an incoming req see
system.mem_ctrls.wrQLenPdf::8                       1                       # What write queue length does an incoming req see
system.mem_ctrls.wrQLenPdf::9                       1                       # What write queue length does an incoming req see
system.mem_ctrls.wrQLenPdf::10                      1                       # What write queue length does an incoming req see
system.mem_ctrls.wrQLenPdf::11                      1                       # What write queue length does an incoming req see
system.mem_ctrls.wrQLenPdf::12                      1                       # What write queue length does an incoming req see
system.mem_ctrls.wrQLenPdf::13                      1                       # What write queue length does an incoming req see
system.mem_ctrls.wrQLenPdf::14                      1                       # What write queue length does an incoming req see
system.mem_ctrls.wrQLenPdf::15                      1                       # What write queue length does an incoming req see
system.mem_ctrls.wrQLenPdf::16                      1                       # What write queue length does an incoming req see
system.mem_ctrls.wrQLenPdf::17                      5                       # What write queue length does an incoming req see
system.mem_ctrls.wrQLenPdf::18                      5                       # What write queue length does an incoming req see
system.mem_ctrls.wrQLenPdf::19                      5                       # What write queue length does an incoming req see
system.mem_ctrls.wrQLenPdf::20                      5                       # What write queue length does an incoming req see
system.mem_ctrls.wrQLenPdf::21                      5                       # What write queue length does an incoming req see
system.mem_ctrls.wrQLenPdf::22                      5                       # What write queue length does an incoming req see
system.mem_ctrls.wrQLenPdf::23                      5                       # What write queue length does an incoming req see
system.mem_ctrls.wrQLenPdf::24                      5                       # What write queue length does an incoming req see
system.mem_ctrls.wrQLenPdf::25                      5                       # What write queue length does an incoming req see
system.mem_ctrls.wrQLenPdf::26                      4                       # What write queue length does an incoming req see
system.mem_ctrls.wrQLenPdf::27                      4                       # What write queue length does an incoming req see
system.mem_ctrls.wrQLenPdf::28                      4                       # What write queue length does an incoming req see
system.mem_ctrls.wrQLenPdf::29                      4                       # What write queue length does an incoming req see
system.mem_ctrls.wrQLenPdf::30                      4                       # What write queue length does an incoming req see
system.mem_ctrls.wrQLenPdf::31                      4                       # What write queue length does an incoming req see
system.mem_ctrls.wrQLenPdf::32                      4                       # What write queue length does an incoming req see
system.mem_ctrls.wrQLenPdf::33                      0                       # What write queue length does an incoming req see
system.mem_ctrls.wrQLenPdf::34                      0                       # What write queue length does an incoming req see
system.mem_ctrls.wrQLenPdf::35                      0                       # What write queue length does an incoming req see
system.mem_ctrls.wrQLenPdf::36                      0                       # What write queue length does an incoming req see
system.mem_ctrls.wrQLenPdf::37                      0                       # What write queue length does an incoming req see
system.mem_ctrls.wrQLenPdf::38                      0                       # What write queue length does an incoming req see
system.mem_ctrls.wrQLenPdf::39                      0                       # What write queue length does an incoming req see
system.mem_ctrls.wrQLenPdf::40                      0                       # What write queue length does an incoming req see
system.mem_ctrls.wrQLenPdf::41                      0                       # What write queue length does an incoming req see
system.mem_ctrls.wrQLenPdf::42                      0                       # What write queue length does an incoming req see
system.mem_ctrls.wrQLenPdf::43                      0                       # What write queue length does an incoming req see
system.mem_ctrls.wrQLenPdf::44                      0                       # What write queue length does an incoming req see
system.mem_ctrls.wrQLenPdf::45                      0                       # What write queue length does an incoming req see
system.mem_ctrls.wrQLenPdf::46                      0                       # What write queue length does an incoming req see
system.mem_ctrls.wrQLenPdf::47                      0                       # What write queue length does an incoming req see
system.mem_ctrls.wrQLenPdf::48                      0                       # What write queue length does an incoming req see
system.mem_ctrls.wrQLenPdf::49                      0                       # What write queue length does an incoming req see
system.mem_ctrls.wrQLenPdf::50                      0                       # What write queue length does an incoming req see
system.mem_ctrls.wrQLenPdf::51                      0                       # What write queue length does an incoming req see
system.mem_ctrls.wrQLenPdf::52                      0                       # What write queue length does an incoming req see
system.mem_ctrls.wrQLenPdf::53                      0                       # What write queue length does an incoming req see
system.mem_ctrls.wrQLenPdf::54                      0                       # What write queue length does an incoming req see
system.mem_ctrls.wrQLenPdf::55                      0                       # What write queue length does an incoming req see
system.mem_ctrls.wrQLenPdf::56                      0                       # What write queue length does an incoming req see
system.mem_ctrls.wrQLenPdf::57                      0                       # What write queue length does an incoming req see
system.mem_ctrls.wrQLenPdf::58                      0                       # What write queue length does an incoming req see
system.mem_ctrls.wrQLenPdf::59                      0                       # What write queue length does an incoming req see
system.mem_ctrls.wrQLenPdf::60                      0                       # What write queue length does an incoming req see
system.mem_ctrls.wrQLenPdf::61                      0                       # What write queue length does an incoming req see
system.mem_ctrls.wrQLenPdf::62                      0                       # What write queue length does an incoming req see
system.mem_ctrls.wrQLenPdf::63                      0                       # What write queue length does an incoming req see
system.mem_ctrls.bytesPerActivate::samples       532659                       # Bytes accessed per row activation
system.mem_ctrls.bytesPerActivate::mean    126.138246                       # Bytes accessed per row activation
system.mem_ctrls.bytesPerActivate::gmean   125.439430                       # Bytes accessed per row activation
system.mem_ctrls.bytesPerActivate::stdev    10.907683                       # Bytes accessed per row activation
system.mem_ctrls.bytesPerActivate::0-127        15546      2.92%      2.92% # Bytes accessed per row activation
system.mem_ctrls.bytesPerActivate::128-255       517103     97.08%    100.00% # Bytes accessed per row activation
system.mem_ctrls.bytesPerActivate::256-383            5      0.00%    100.00% # Bytes accessed per row activation
system.mem_ctrls.bytesPerActivate::384-511            2      0.00%    100.00% # Bytes accessed per row activation
system.mem_ctrls.bytesPerActivate::512-639            1      0.00%    100.00% # Bytes accessed per row activation
system.mem_ctrls.bytesPerActivate::640-767            1      0.00%    100.00% # Bytes accessed per row activation
system.mem_ctrls.bytesPerActivate::1024-1151            1      0.00%    100.00% # Bytes accessed per row activation
system.mem_ctrls.bytesPerActivate::total       532659                       # Bytes accessed per row activation
system.mem_ctrls.rdPerTurnAround::samples            4                       # Reads before turning the bus around for writes
system.mem_ctrls.rdPerTurnAround::mean   207280.750000                       # Reads before turning the bus around for writes
system.mem_ctrls.rdPerTurnAround::gmean  203097.793279                       # Reads before turning the bus around for writes
system.mem_ctrls.rdPerTurnAround::stdev  46402.956302                       # Reads before turning the bus around for writes
system.mem_ctrls.rdPerTurnAround::147456-155647            1     25.00%     25.00% # Reads before turning the bus around for writes
system.mem_ctrls.rdPerTurnAround::196608-204799            1     25.00%     50.00% # Reads before turning the bus around for writes
system.mem_ctrls.rdPerTurnAround::229376-237567            1     25.00%     75.00% # Reads before turning the bus around for writes
system.mem_ctrls.rdPerTurnAround::253952-262143            1     25.00%    100.00% # Reads before turning the bus around for writes
system.mem_ctrls.rdPerTurnAround::total             4                       # Reads before turning the bus around for writes
system.mem_ctrls.wrPerTurnAround::samples            4                       # Writes before turning the bus around for reads
system.mem_ctrls.wrPerTurnAround::mean             16                       # Writes before turning the bus around for reads
system.mem_ctrls.wrPerTurnAround::gmean     16.000000                       # Writes before turning the bus around for reads
system.mem_ctrls.wrPerTurnAround::16                4    100.00%    100.00% # Writes before turning the bus around for reads
system.mem_ctrls.wrPerTurnAround::total             4                       # Writes before turning the bus around for reads
system.mem_ctrls.totQLat                  14826735146                       # Total ticks spent queuing
system.mem_ctrls.totMemAccLat             34509735146                       # Total ticks spent from burst creation until serviced by the DRAM
system.mem_ctrls.totBusLat                 5248800000                       # Total ticks spent in databus transfers
system.mem_ctrls.avgQLat                     14123.93                       # Average queueing delay per DRAM burst
system.mem_ctrls.avgBusLat                    5000.00                       # Average bus latency per DRAM burst
system.mem_ctrls.avgMemAccLat                32873.93                       # Average memory access latency per DRAM burst
system.mem_ctrls.avgRdBW                       797.59                       # Average DRAM read bandwidth in MiByte/s
system.mem_ctrls.avgWrBW                         0.05                       # Average achieved write bandwidth in MiByte/s
system.mem_ctrls.avgRdBWSys                    797.59                       # Average system read bandwidth in MiByte/s
system.mem_ctrls.avgWrBWSys                      0.07                       # Average system write bandwidth in MiByte/s
system.mem_ctrls.peakBW                      12800.00                       # Theoretical peak bandwidth in MiByte/s
system.mem_ctrls.busUtil                         6.23                       # Data bus utilization in percentage
system.mem_ctrls.busUtilRead                     6.23                       # Data bus utilization in percentage for reads
system.mem_ctrls.busUtilWrite                    0.00                       # Data bus utilization in percentage for writes
system.mem_ctrls.avgRdQLen                       1.00                       # Average read queue length when enqueuing
system.mem_ctrls.avgWrQLen                      22.46                       # Average write queue length when enqueuing
system.mem_ctrls.readRowHits                   517111                       # Number of row buffer hits during reads
system.mem_ctrls.writeRowHits                      54                       # Number of row buffer hits during writes
system.mem_ctrls.readRowHitRate                 49.26                       # Row buffer hit rate for reads
system.mem_ctrls.writeRowHitRate                60.00                       # Row buffer hit rate for writes
system.mem_ctrls.avgGap                      80235.05                       # Average gap between requests
system.mem_ctrls.pageHitRate                    49.26                       # Row buffer hit rate, read and write combined
system.mem_ctrls_0.actEnergy               2004443280                       # Energy for activate commands per rank (pJ)
system.mem_ctrls_0.preEnergy               1093694250                       # Energy for precharge commands per rank (pJ)
system.mem_ctrls_0.readEnergy              4091942400                       # Energy for read commands per rank (pJ)
system.mem_ctrls_0.writeEnergy                 362880                       # Energy for write commands per rank (pJ)
system.mem_ctrls_0.refreshEnergy           5504653440                       # Energy for refresh commands per rank (pJ)
system.mem_ctrls_0.actBackEnergy          55125030600                       # Energy for active background per rank (pJ)
system.mem_ctrls_0.preBackEnergy           2211888000                       # Energy for precharge background per rank (pJ)
system.mem_ctrls_0.totalEnergy            70032014850                       # Total energy per rank (pJ)
system.mem_ctrls_0.averagePower            830.958155                       # Core power per rank (mW)
system.mem_ctrls_0.memoryStateTime::IDLE   3385876180                       # Time in different power states
system.mem_ctrls_0.memoryStateTime::REF    2812680000                       # Time in different power states
system.mem_ctrls_0.memoryStateTime::PRE_PDN            0                       # Time in different power states
system.mem_ctrls_0.memoryStateTime::ACT   78033752432                       # Time in different power states
system.mem_ctrls_0.memoryStateTime::ACT_PDN            0                       # Time in different power states
system.mem_ctrls_1.actEnergy               2023691040                       # Energy for activate commands per rank (pJ)
system.mem_ctrls_1.preEnergy               1104196500                       # Energy for precharge commands per rank (pJ)
system.mem_ctrls_1.readEnergy              4099734600                       # Energy for read commands per rank (pJ)
system.mem_ctrls_1.writeEnergy                  51840                       # Energy for write commands per rank (pJ)
system.mem_ctrls_1.refreshEnergy           5504653440                       # Energy for refresh commands per rank (pJ)
system.mem_ctrls_1.actBackEnergy          55169423055                       # Energy for active background per rank (pJ)
system.mem_ctrls_1.preBackEnergy           2172947250                       # Energy for precharge background per rank (pJ)
system.mem_ctrls_1.totalEnergy            70074697725                       # Total energy per rank (pJ)
system.mem_ctrls_1.averagePower            831.464604                       # Core power per rank (mW)
system.mem_ctrls_1.memoryStateTime::IDLE   3318344084                       # Time in different power states
system.mem_ctrls_1.memoryStateTime::REF    2812680000                       # Time in different power states
system.mem_ctrls_1.memoryStateTime::PRE_PDN            0                       # Time in different power states
system.mem_ctrls_1.memoryStateTime::ACT   78100081630                       # Time in different power states
system.mem_ctrls_1.memoryStateTime::ACT_PDN            0                       # Time in different power states
system.switch_cpus_1_voltage_domain.voltage                   1                       # Voltage in Volts
system.switch_cpus_1_clk_domain.clock                       294                       # Clock period in ticks
system.switch_cpus_1.apic_clk_domain.clock                 4704                       # Clock period in ticks
system.switch_cpus_1.workload.num_syscalls                    0                       # Number of system calls
system.switch_cpus_1.numCycles                                0                       # number of cpu cycles simulated
system.switch_cpus_1.numWorkItemsStarted                      0                       # number of work items this cpu started
system.switch_cpus_1.numWorkItemsCompleted                    0                       # number of work items this cpu completed
system.switch_cpus_1.committedInsts                           0                       # Number of instructions committed
system.switch_cpus_1.numVMExits                               0                       # total number of KVM exits
system.switch_cpus_1.numVMHalfEntries                         0                       # number of KVM entries to finalize pending operations
system.switch_cpus_1.numExitSignal                            0                       # exits due to signal delivery
system.switch_cpus_1.numMMIO                                  0                       # number of VM exits due to memory mapped IO
system.switch_cpus_1.numCoalescedMMIO                         0                       # number of coalesced memory mapped IO requests
system.switch_cpus_1.numIO                                    0                       # number of VM exits due to legacy IO
system.switch_cpus_1.numHalt                                  0                       # number of VM exits due to wait for interrupt instructions
system.switch_cpus_1.numInterrupts                            0                       # number of interrupts delivered
system.switch_cpus_1.numHypercalls                            0                       # number of hypercalls
system.switch_cpus_1.dcache.tags.replacements           1048932                       # number of replacements
system.switch_cpus_1.dcache.tags.tagsinuse           613.561700                       # Cycle average of tags in use
system.switch_cpus_1.dcache.tags.total_refs            10505570                       # Total number of references to valid blocks.
system.switch_cpus_1.dcache.tags.sampled_refs           1049956                       # Sample count of references to valid blocks.
system.switch_cpus_1.dcache.tags.avg_refs             10.005724                       # Average number of references to valid blocks.
system.switch_cpus_1.dcache.tags.warmup_cycle       82294094926                       # Cycle when the warmup percentage was hit.
system.switch_cpus_1.dcache.tags.occ_blocks::switch_cpus.data    58.049969                       # Average occupied blocks per requestor
system.switch_cpus_1.dcache.tags.occ_blocks::switch_cpus_1.data   555.511730                       # Average occupied blocks per requestor
system.switch_cpus_1.dcache.tags.occ_percent::switch_cpus.data     0.056689                       # Average percentage of cache occupancy
system.switch_cpus_1.dcache.tags.occ_percent::switch_cpus_1.data     0.542492                       # Average percentage of cache occupancy
system.switch_cpus_1.dcache.tags.occ_percent::total     0.599181                       # Average percentage of cache occupancy
system.switch_cpus_1.dcache.tags.occ_task_id_blocks::1024         1024                       # Occupied blocks per task id
system.switch_cpus_1.dcache.tags.age_task_id_blocks_1024::0           22                       # Occupied blocks per task id
system.switch_cpus_1.dcache.tags.age_task_id_blocks_1024::1            6                       # Occupied blocks per task id
system.switch_cpus_1.dcache.tags.age_task_id_blocks_1024::2           16                       # Occupied blocks per task id
system.switch_cpus_1.dcache.tags.age_task_id_blocks_1024::3          112                       # Occupied blocks per task id
system.switch_cpus_1.dcache.tags.age_task_id_blocks_1024::4          868                       # Occupied blocks per task id
system.switch_cpus_1.dcache.tags.occ_task_id_percent::1024            1                       # Percentage of cache occupancy per task id
system.switch_cpus_1.dcache.tags.tag_accesses          24152257                       # Number of tag accesses
system.switch_cpus_1.dcache.tags.data_accesses         24152257                       # Number of data accesses
system.switch_cpus_1.dcache.ReadReq_hits::switch_cpus_1.data      8402221                       # number of ReadReq hits
system.switch_cpus_1.dcache.ReadReq_hits::total         8402221                       # number of ReadReq hits
system.switch_cpus_1.dcache.WriteReq_hits::switch_cpus_1.data      2099202                       # number of WriteReq hits
system.switch_cpus_1.dcache.WriteReq_hits::total        2099202                       # number of WriteReq hits
system.switch_cpus_1.dcache.demand_hits::switch_cpus_1.data     10501423                       # number of demand (read+write) hits
system.switch_cpus_1.dcache.demand_hits::total         10501423                       # number of demand (read+write) hits
system.switch_cpus_1.dcache.overall_hits::switch_cpus_1.data     10501423                       # number of overall hits
system.switch_cpus_1.dcache.overall_hits::total        10501423                       # number of overall hits
system.switch_cpus_1.dcache.ReadReq_misses::switch_cpus_1.data      1049804                       # number of ReadReq misses
system.switch_cpus_1.dcache.ReadReq_misses::total       1049804                       # number of ReadReq misses
system.switch_cpus_1.dcache.demand_misses::switch_cpus_1.data      1049804                       # number of demand (read+write) misses
system.switch_cpus_1.dcache.demand_misses::total        1049804                       # number of demand (read+write) misses
system.switch_cpus_1.dcache.overall_misses::switch_cpus_1.data      1049804                       # number of overall misses
system.switch_cpus_1.dcache.overall_misses::total       1049804                       # number of overall misses
system.switch_cpus_1.dcache.ReadReq_miss_latency::switch_cpus_1.data  80468984386                       # number of ReadReq miss cycles
system.switch_cpus_1.dcache.ReadReq_miss_latency::total  80468984386                       # number of ReadReq miss cycles
system.switch_cpus_1.dcache.demand_miss_latency::switch_cpus_1.data  80468984386                       # number of demand (read+write) miss cycles
system.switch_cpus_1.dcache.demand_miss_latency::total  80468984386                       # number of demand (read+write) miss cycles
system.switch_cpus_1.dcache.overall_miss_latency::switch_cpus_1.data  80468984386                       # number of overall miss cycles
system.switch_cpus_1.dcache.overall_miss_latency::total  80468984386                       # number of overall miss cycles
system.switch_cpus_1.dcache.ReadReq_accesses::switch_cpus_1.data      9452025                       # number of ReadReq accesses(hits+misses)
system.switch_cpus_1.dcache.ReadReq_accesses::total      9452025                       # number of ReadReq accesses(hits+misses)
system.switch_cpus_1.dcache.WriteReq_accesses::switch_cpus_1.data      2099202                       # number of WriteReq accesses(hits+misses)
system.switch_cpus_1.dcache.WriteReq_accesses::total      2099202                       # number of WriteReq accesses(hits+misses)
system.switch_cpus_1.dcache.demand_accesses::switch_cpus_1.data     11551227                       # number of demand (read+write) accesses
system.switch_cpus_1.dcache.demand_accesses::total     11551227                       # number of demand (read+write) accesses
system.switch_cpus_1.dcache.overall_accesses::switch_cpus_1.data     11551227                       # number of overall (read+write) accesses
system.switch_cpus_1.dcache.overall_accesses::total     11551227                       # number of overall (read+write) accesses
system.switch_cpus_1.dcache.ReadReq_miss_rate::switch_cpus_1.data     0.111067                       # miss rate for ReadReq accesses
system.switch_cpus_1.dcache.ReadReq_miss_rate::total     0.111067                       # miss rate for ReadReq accesses
system.switch_cpus_1.dcache.demand_miss_rate::switch_cpus_1.data     0.090882                       # miss rate for demand accesses
system.switch_cpus_1.dcache.demand_miss_rate::total     0.090882                       # miss rate for demand accesses
system.switch_cpus_1.dcache.overall_miss_rate::switch_cpus_1.data     0.090882                       # miss rate for overall accesses
system.switch_cpus_1.dcache.overall_miss_rate::total     0.090882                       # miss rate for overall accesses
system.switch_cpus_1.dcache.ReadReq_avg_miss_latency::switch_cpus_1.data 76651.436255                       # average ReadReq miss latency
system.switch_cpus_1.dcache.ReadReq_avg_miss_latency::total 76651.436255                       # average ReadReq miss latency
system.switch_cpus_1.dcache.demand_avg_miss_latency::switch_cpus_1.data 76651.436255                       # average overall miss latency
system.switch_cpus_1.dcache.demand_avg_miss_latency::total 76651.436255                       # average overall miss latency
system.switch_cpus_1.dcache.overall_avg_miss_latency::switch_cpus_1.data 76651.436255                       # average overall miss latency
system.switch_cpus_1.dcache.overall_avg_miss_latency::total 76651.436255                       # average overall miss latency
system.switch_cpus_1.dcache.blocked_cycles::no_mshrs            0                       # number of cycles access was blocked
system.switch_cpus_1.dcache.blocked_cycles::no_targets            0                       # number of cycles access was blocked
system.switch_cpus_1.dcache.blocked::no_mshrs                 0                       # number of cycles access was blocked
system.switch_cpus_1.dcache.blocked::no_targets               0                       # number of cycles access was blocked
system.switch_cpus_1.dcache.avg_blocked_cycles::no_mshrs          0                       # average number of cycles each access was blocked
system.switch_cpus_1.dcache.avg_blocked_cycles::no_targets          0                       # average number of cycles each access was blocked
system.switch_cpus_1.dcache.fast_writes                       0                       # number of fast writes performed
system.switch_cpus_1.dcache.cache_copies                      0                       # number of cache copies performed
system.switch_cpus_1.dcache.writebacks::writebacks           90                       # number of writebacks
system.switch_cpus_1.dcache.writebacks::total                90                       # number of writebacks
system.switch_cpus_1.dcache.ReadReq_mshr_misses::switch_cpus_1.data      1049804                       # number of ReadReq MSHR misses
system.switch_cpus_1.dcache.ReadReq_mshr_misses::total      1049804                       # number of ReadReq MSHR misses
system.switch_cpus_1.dcache.demand_mshr_misses::switch_cpus_1.data      1049804                       # number of demand (read+write) MSHR misses
system.switch_cpus_1.dcache.demand_mshr_misses::total      1049804                       # number of demand (read+write) MSHR misses
system.switch_cpus_1.dcache.overall_mshr_misses::switch_cpus_1.data      1049804                       # number of overall MSHR misses
system.switch_cpus_1.dcache.overall_mshr_misses::total      1049804                       # number of overall MSHR misses
system.switch_cpus_1.dcache.ReadReq_mshr_miss_latency::switch_cpus_1.data  79250117996                       # number of ReadReq MSHR miss cycles
system.switch_cpus_1.dcache.ReadReq_mshr_miss_latency::total  79250117996                       # number of ReadReq MSHR miss cycles
system.switch_cpus_1.dcache.demand_mshr_miss_latency::switch_cpus_1.data  79250117996                       # number of demand (read+write) MSHR miss cycles
system.switch_cpus_1.dcache.demand_mshr_miss_latency::total  79250117996                       # number of demand (read+write) MSHR miss cycles
system.switch_cpus_1.dcache.overall_mshr_miss_latency::switch_cpus_1.data  79250117996                       # number of overall MSHR miss cycles
system.switch_cpus_1.dcache.overall_mshr_miss_latency::total  79250117996                       # number of overall MSHR miss cycles
system.switch_cpus_1.dcache.ReadReq_mshr_miss_rate::switch_cpus_1.data     0.111067                       # mshr miss rate for ReadReq accesses
system.switch_cpus_1.dcache.ReadReq_mshr_miss_rate::total     0.111067                       # mshr miss rate for ReadReq accesses
system.switch_cpus_1.dcache.demand_mshr_miss_rate::switch_cpus_1.data     0.090882                       # mshr miss rate for demand accesses
system.switch_cpus_1.dcache.demand_mshr_miss_rate::total     0.090882                       # mshr miss rate for demand accesses
system.switch_cpus_1.dcache.overall_mshr_miss_rate::switch_cpus_1.data     0.090882                       # mshr miss rate for overall accesses
system.switch_cpus_1.dcache.overall_mshr_miss_rate::total     0.090882                       # mshr miss rate for overall accesses
system.switch_cpus_1.dcache.ReadReq_avg_mshr_miss_latency::switch_cpus_1.data 75490.394394                       # average ReadReq mshr miss latency
system.switch_cpus_1.dcache.ReadReq_avg_mshr_miss_latency::total 75490.394394                       # average ReadReq mshr miss latency
system.switch_cpus_1.dcache.demand_avg_mshr_miss_latency::switch_cpus_1.data 75490.394394                       # average overall mshr miss latency
system.switch_cpus_1.dcache.demand_avg_mshr_miss_latency::total 75490.394394                       # average overall mshr miss latency
system.switch_cpus_1.dcache.overall_avg_mshr_miss_latency::switch_cpus_1.data 75490.394394                       # average overall mshr miss latency
system.switch_cpus_1.dcache.overall_avg_mshr_miss_latency::total 75490.394394                       # average overall mshr miss latency
system.switch_cpus_1.dcache.no_allocate_misses                0                       # Number of misses that were no-allocate
system.switch_cpus_1.dtb_walker_cache.tags.replacements            0                       # number of replacements
system.switch_cpus_1.dtb_walker_cache.tags.tagsinuse            0                       # Cycle average of tags in use
system.switch_cpus_1.dtb_walker_cache.tags.total_refs            0                       # Total number of references to valid blocks.
system.switch_cpus_1.dtb_walker_cache.tags.sampled_refs            0                       # Sample count of references to valid blocks.
system.switch_cpus_1.dtb_walker_cache.tags.avg_refs          0                       # Average number of references to valid blocks.
system.switch_cpus_1.dtb_walker_cache.tags.warmup_cycle            0                       # Cycle when the warmup percentage was hit.
system.switch_cpus_1.dtb_walker_cache.tags.tag_accesses            0                       # Number of tag accesses
system.switch_cpus_1.dtb_walker_cache.tags.data_accesses            0                       # Number of data accesses
system.switch_cpus_1.dtb_walker_cache.blocked_cycles::no_mshrs            0                       # number of cycles access was blocked
system.switch_cpus_1.dtb_walker_cache.blocked_cycles::no_targets            0                       # number of cycles access was blocked
system.switch_cpus_1.dtb_walker_cache.blocked::no_mshrs            0                       # number of cycles access was blocked
system.switch_cpus_1.dtb_walker_cache.blocked::no_targets            0                       # number of cycles access was blocked
system.switch_cpus_1.dtb_walker_cache.avg_blocked_cycles::no_mshrs          0                       # average number of cycles each access was blocked
system.switch_cpus_1.dtb_walker_cache.avg_blocked_cycles::no_targets          0                       # average number of cycles each access was blocked
system.switch_cpus_1.dtb_walker_cache.fast_writes             0                       # number of fast writes performed
system.switch_cpus_1.dtb_walker_cache.cache_copies            0                       # number of cache copies performed
system.switch_cpus_1.dtb_walker_cache.no_allocate_misses            0                       # Number of misses that were no-allocate
system.switch_cpus_1.icache.tags.replacements                 3                       # number of replacements
system.switch_cpus_1.icache.tags.tagsinuse           197.999929                       # Cycle average of tags in use
system.switch_cpus_1.icache.tags.total_refs             3175291                       # Total number of references to valid blocks.
system.switch_cpus_1.icache.tags.sampled_refs               201                       # Sample count of references to valid blocks.
system.switch_cpus_1.icache.tags.avg_refs          15797.467662                       # Average number of references to valid blocks.
system.switch_cpus_1.icache.tags.warmup_cycle                 0                       # Cycle when the warmup percentage was hit.
system.switch_cpus_1.icache.tags.occ_blocks::switch_cpus.inst   184.000015                       # Average occupied blocks per requestor
system.switch_cpus_1.icache.tags.occ_blocks::switch_cpus_1.inst    13.999913                       # Average occupied blocks per requestor
system.switch_cpus_1.icache.tags.occ_percent::switch_cpus.inst     0.359375                       # Average percentage of cache occupancy
system.switch_cpus_1.icache.tags.occ_percent::switch_cpus_1.inst     0.027344                       # Average percentage of cache occupancy
system.switch_cpus_1.icache.tags.occ_percent::total     0.386719                       # Average percentage of cache occupancy
system.switch_cpus_1.icache.tags.occ_task_id_blocks::1024          198                       # Occupied blocks per task id
system.switch_cpus_1.icache.tags.age_task_id_blocks_1024::4          198                       # Occupied blocks per task id
system.switch_cpus_1.icache.tags.occ_task_id_percent::1024     0.386719                       # Percentage of cache occupancy per task id
system.switch_cpus_1.icache.tags.tag_accesses           6322406                       # Number of tag accesses
system.switch_cpus_1.icache.tags.data_accesses          6322406                       # Number of data accesses
system.switch_cpus_1.icache.ReadReq_hits::switch_cpus_1.inst      3161176                       # number of ReadReq hits
system.switch_cpus_1.icache.ReadReq_hits::total         3161176                       # number of ReadReq hits
system.switch_cpus_1.icache.demand_hits::switch_cpus_1.inst      3161176                       # number of demand (read+write) hits
system.switch_cpus_1.icache.demand_hits::total          3161176                       # number of demand (read+write) hits
system.switch_cpus_1.icache.overall_hits::switch_cpus_1.inst      3161176                       # number of overall hits
system.switch_cpus_1.icache.overall_hits::total         3161176                       # number of overall hits
system.switch_cpus_1.icache.ReadReq_misses::switch_cpus_1.inst           20                       # number of ReadReq misses
system.switch_cpus_1.icache.ReadReq_misses::total            20                       # number of ReadReq misses
system.switch_cpus_1.icache.demand_misses::switch_cpus_1.inst           20                       # number of demand (read+write) misses
system.switch_cpus_1.icache.demand_misses::total             20                       # number of demand (read+write) misses
system.switch_cpus_1.icache.overall_misses::switch_cpus_1.inst           20                       # number of overall misses
system.switch_cpus_1.icache.overall_misses::total            20                       # number of overall misses
system.switch_cpus_1.icache.ReadReq_miss_latency::switch_cpus_1.inst      1541814                       # number of ReadReq miss cycles
system.switch_cpus_1.icache.ReadReq_miss_latency::total      1541814                       # number of ReadReq miss cycles
system.switch_cpus_1.icache.demand_miss_latency::switch_cpus_1.inst      1541814                       # number of demand (read+write) miss cycles
system.switch_cpus_1.icache.demand_miss_latency::total      1541814                       # number of demand (read+write) miss cycles
system.switch_cpus_1.icache.overall_miss_latency::switch_cpus_1.inst      1541814                       # number of overall miss cycles
system.switch_cpus_1.icache.overall_miss_latency::total      1541814                       # number of overall miss cycles
system.switch_cpus_1.icache.ReadReq_accesses::switch_cpus_1.inst      3161196                       # number of ReadReq accesses(hits+misses)
system.switch_cpus_1.icache.ReadReq_accesses::total      3161196                       # number of ReadReq accesses(hits+misses)
system.switch_cpus_1.icache.demand_accesses::switch_cpus_1.inst      3161196                       # number of demand (read+write) accesses
system.switch_cpus_1.icache.demand_accesses::total      3161196                       # number of demand (read+write) accesses
system.switch_cpus_1.icache.overall_accesses::switch_cpus_1.inst      3161196                       # number of overall (read+write) accesses
system.switch_cpus_1.icache.overall_accesses::total      3161196                       # number of overall (read+write) accesses
system.switch_cpus_1.icache.ReadReq_miss_rate::switch_cpus_1.inst     0.000006                       # miss rate for ReadReq accesses
system.switch_cpus_1.icache.ReadReq_miss_rate::total     0.000006                       # miss rate for ReadReq accesses
system.switch_cpus_1.icache.demand_miss_rate::switch_cpus_1.inst     0.000006                       # miss rate for demand accesses
system.switch_cpus_1.icache.demand_miss_rate::total     0.000006                       # miss rate for demand accesses
system.switch_cpus_1.icache.overall_miss_rate::switch_cpus_1.inst     0.000006                       # miss rate for overall accesses
system.switch_cpus_1.icache.overall_miss_rate::total     0.000006                       # miss rate for overall accesses
system.switch_cpus_1.icache.ReadReq_avg_miss_latency::switch_cpus_1.inst 77090.700000                       # average ReadReq miss latency
system.switch_cpus_1.icache.ReadReq_avg_miss_latency::total 77090.700000                       # average ReadReq miss latency
system.switch_cpus_1.icache.demand_avg_miss_latency::switch_cpus_1.inst 77090.700000                       # average overall miss latency
system.switch_cpus_1.icache.demand_avg_miss_latency::total 77090.700000                       # average overall miss latency
system.switch_cpus_1.icache.overall_avg_miss_latency::switch_cpus_1.inst 77090.700000                       # average overall miss latency
system.switch_cpus_1.icache.overall_avg_miss_latency::total 77090.700000                       # average overall miss latency
system.switch_cpus_1.icache.blocked_cycles::no_mshrs            0                       # number of cycles access was blocked
system.switch_cpus_1.icache.blocked_cycles::no_targets            0                       # number of cycles access was blocked
system.switch_cpus_1.icache.blocked::no_mshrs                 0                       # number of cycles access was blocked
system.switch_cpus_1.icache.blocked::no_targets               0                       # number of cycles access was blocked
system.switch_cpus_1.icache.avg_blocked_cycles::no_mshrs          0                       # average number of cycles each access was blocked
system.switch_cpus_1.icache.avg_blocked_cycles::no_targets          0                       # average number of cycles each access was blocked
system.switch_cpus_1.icache.fast_writes                       0                       # number of fast writes performed
system.switch_cpus_1.icache.cache_copies                      0                       # number of cache copies performed
system.switch_cpus_1.icache.ReadReq_mshr_hits::switch_cpus_1.inst            6                       # number of ReadReq MSHR hits
system.switch_cpus_1.icache.ReadReq_mshr_hits::total            6                       # number of ReadReq MSHR hits
system.switch_cpus_1.icache.demand_mshr_hits::switch_cpus_1.inst            6                       # number of demand (read+write) MSHR hits
system.switch_cpus_1.icache.demand_mshr_hits::total            6                       # number of demand (read+write) MSHR hits
system.switch_cpus_1.icache.overall_mshr_hits::switch_cpus_1.inst            6                       # number of overall MSHR hits
system.switch_cpus_1.icache.overall_mshr_hits::total            6                       # number of overall MSHR hits
system.switch_cpus_1.icache.ReadReq_mshr_misses::switch_cpus_1.inst           14                       # number of ReadReq MSHR misses
system.switch_cpus_1.icache.ReadReq_mshr_misses::total           14                       # number of ReadReq MSHR misses
system.switch_cpus_1.icache.demand_mshr_misses::switch_cpus_1.inst           14                       # number of demand (read+write) MSHR misses
system.switch_cpus_1.icache.demand_mshr_misses::total           14                       # number of demand (read+write) MSHR misses
system.switch_cpus_1.icache.overall_mshr_misses::switch_cpus_1.inst           14                       # number of overall MSHR misses
system.switch_cpus_1.icache.overall_mshr_misses::total           14                       # number of overall MSHR misses
system.switch_cpus_1.icache.ReadReq_mshr_miss_latency::switch_cpus_1.inst      1098214                       # number of ReadReq MSHR miss cycles
system.switch_cpus_1.icache.ReadReq_mshr_miss_latency::total      1098214                       # number of ReadReq MSHR miss cycles
system.switch_cpus_1.icache.demand_mshr_miss_latency::switch_cpus_1.inst      1098214                       # number of demand (read+write) MSHR miss cycles
system.switch_cpus_1.icache.demand_mshr_miss_latency::total      1098214                       # number of demand (read+write) MSHR miss cycles
system.switch_cpus_1.icache.overall_mshr_miss_latency::switch_cpus_1.inst      1098214                       # number of overall MSHR miss cycles
system.switch_cpus_1.icache.overall_mshr_miss_latency::total      1098214                       # number of overall MSHR miss cycles
system.switch_cpus_1.icache.ReadReq_mshr_miss_rate::switch_cpus_1.inst     0.000004                       # mshr miss rate for ReadReq accesses
system.switch_cpus_1.icache.ReadReq_mshr_miss_rate::total     0.000004                       # mshr miss rate for ReadReq accesses
system.switch_cpus_1.icache.demand_mshr_miss_rate::switch_cpus_1.inst     0.000004                       # mshr miss rate for demand accesses
system.switch_cpus_1.icache.demand_mshr_miss_rate::total     0.000004                       # mshr miss rate for demand accesses
system.switch_cpus_1.icache.overall_mshr_miss_rate::switch_cpus_1.inst     0.000004                       # mshr miss rate for overall accesses
system.switch_cpus_1.icache.overall_mshr_miss_rate::total     0.000004                       # mshr miss rate for overall accesses
system.switch_cpus_1.icache.ReadReq_avg_mshr_miss_latency::switch_cpus_1.inst 78443.857143                       # average ReadReq mshr miss latency
system.switch_cpus_1.icache.ReadReq_avg_mshr_miss_latency::total 78443.857143                       # average ReadReq mshr miss latency
system.switch_cpus_1.icache.demand_avg_mshr_miss_latency::switch_cpus_1.inst 78443.857143                       # average overall mshr miss latency
system.switch_cpus_1.icache.demand_avg_mshr_miss_latency::total 78443.857143                       # average overall mshr miss latency
system.switch_cpus_1.icache.overall_avg_mshr_miss_latency::switch_cpus_1.inst 78443.857143                       # average overall mshr miss latency
system.switch_cpus_1.icache.overall_avg_mshr_miss_latency::total 78443.857143                       # average overall mshr miss latency
system.switch_cpus_1.icache.no_allocate_misses                0                       # Number of misses that were no-allocate
system.cpu.itb_walker_cache.tags.replacements            0                       # number of replacements
system.cpu.itb_walker_cache.tags.tagsinuse            0                       # Cycle average of tags in use
system.cpu.itb_walker_cache.tags.total_refs            0                       # Total number of references to valid blocks.
system.cpu.itb_walker_cache.tags.sampled_refs            0                       # Sample count of references to valid blocks.
system.cpu.itb_walker_cache.tags.avg_refs          0                       # Average number of references to valid blocks.
system.cpu.itb_walker_cache.tags.warmup_cycle            0                       # Cycle when the warmup percentage was hit.
system.cpu.itb_walker_cache.tags.tag_accesses            0                       # Number of tag accesses
system.cpu.itb_walker_cache.tags.data_accesses            0                       # Number of data accesses
system.cpu.itb_walker_cache.blocked_cycles::no_mshrs            0                       # number of cycles access was blocked
system.cpu.itb_walker_cache.blocked_cycles::no_targets            0                       # number of cycles access was blocked
system.cpu.itb_walker_cache.blocked::no_mshrs            0                       # number of cycles access was blocked
system.cpu.itb_walker_cache.blocked::no_targets            0                       # number of cycles access was blocked
system.cpu.itb_walker_cache.avg_blocked_cycles::no_mshrs          0                       # average number of cycles each access was blocked
system.cpu.itb_walker_cache.avg_blocked_cycles::no_targets          0                       # average number of cycles each access was blocked
system.cpu.itb_walker_cache.fast_writes             0                       # number of fast writes performed
system.cpu.itb_walker_cache.cache_copies            0                       # number of cache copies performed
system.cpu.itb_walker_cache.no_allocate_misses            0                       # Number of misses that were no-allocate
system.l2.tags.replacements                   1017533                       # number of replacements
system.l2.tags.tagsinuse                 17044.356233                       # Cycle average of tags in use
system.l2.tags.total_refs                          76                       # Total number of references to valid blocks.
system.l2.tags.sampled_refs                   1050301                       # Sample count of references to valid blocks.
system.l2.tags.avg_refs                      0.000072                       # Average number of references to valid blocks.
system.l2.tags.warmup_cycle               82334397750                       # Cycle when the warmup percentage was hit.
system.l2.tags.occ_blocks::writebacks        0.033013                       # Average occupied blocks per requestor
system.l2.tags.occ_blocks::switch_cpus.inst    86.143499                       # Average occupied blocks per requestor
system.l2.tags.occ_blocks::switch_cpus.data    28.555164                       # Average occupied blocks per requestor
system.l2.tags.occ_blocks::switch_cpus_1.inst     5.408350                       # Average occupied blocks per requestor
system.l2.tags.occ_blocks::switch_cpus_1.data 16924.216207                       # Average occupied blocks per requestor
system.l2.tags.occ_percent::writebacks       0.000001                       # Average percentage of cache occupancy
system.l2.tags.occ_percent::switch_cpus.inst     0.002629                       # Average percentage of cache occupancy
system.l2.tags.occ_percent::switch_cpus.data     0.000871                       # Average percentage of cache occupancy
system.l2.tags.occ_percent::switch_cpus_1.inst     0.000165                       # Average percentage of cache occupancy
system.l2.tags.occ_percent::switch_cpus_1.data     0.516486                       # Average percentage of cache occupancy
system.l2.tags.occ_percent::total            0.520152                       # Average percentage of cache occupancy
system.l2.tags.occ_task_id_blocks::1024         32768                       # Occupied blocks per task id
system.l2.tags.age_task_id_blocks_1024::0          131                       # Occupied blocks per task id
system.l2.tags.age_task_id_blocks_1024::1          394                       # Occupied blocks per task id
system.l2.tags.age_task_id_blocks_1024::2          512                       # Occupied blocks per task id
system.l2.tags.age_task_id_blocks_1024::3         3584                       # Occupied blocks per task id
system.l2.tags.age_task_id_blocks_1024::4        28147                       # Occupied blocks per task id
system.l2.tags.occ_task_id_percent::1024            1                       # Percentage of cache occupancy per task id
system.l2.tags.tag_accesses                   9449088                       # Number of tag accesses
system.l2.tags.data_accesses                  9449088                       # Number of data accesses
system.l2.ReadReq_hits::switch_cpus_1.data           57                       # number of ReadReq hits
system.l2.ReadReq_hits::total                      57                       # number of ReadReq hits
system.l2.Writeback_hits::writebacks               90                       # number of Writeback hits
system.l2.Writeback_hits::total                    90                       # number of Writeback hits
system.l2.demand_hits::switch_cpus_1.data           57                       # number of demand (read+write) hits
system.l2.demand_hits::total                       57                       # number of demand (read+write) hits
system.l2.overall_hits::switch_cpus_1.data           57                       # number of overall hits
system.l2.overall_hits::total                      57                       # number of overall hits
system.l2.ReadReq_misses::switch_cpus_1.inst           14                       # number of ReadReq misses
system.l2.ReadReq_misses::switch_cpus_1.data      1049746                       # number of ReadReq misses
system.l2.ReadReq_misses::total               1049760                       # number of ReadReq misses
system.l2.demand_misses::switch_cpus_1.inst           14                       # number of demand (read+write) misses
system.l2.demand_misses::switch_cpus_1.data      1049746                       # number of demand (read+write) misses
system.l2.demand_misses::total                1049760                       # number of demand (read+write) misses
system.l2.overall_misses::switch_cpus_1.inst           14                       # number of overall misses
system.l2.overall_misses::switch_cpus_1.data      1049746                       # number of overall misses
system.l2.overall_misses::total               1049760                       # number of overall misses
system.l2.ReadReq_miss_latency::switch_cpus_1.inst      1089982                       # number of ReadReq miss cycles
system.l2.ReadReq_miss_latency::switch_cpus_1.data  78632481914                       # number of ReadReq miss cycles
system.l2.ReadReq_miss_latency::total     78633571896                       # number of ReadReq miss cycles
system.l2.demand_miss_latency::switch_cpus_1.inst      1089982                       # number of demand (read+write) miss cycles
system.l2.demand_miss_latency::switch_cpus_1.data  78632481914                       # number of demand (read+write) miss cycles
system.l2.demand_miss_latency::total      78633571896                       # number of demand (read+write) miss cycles
system.l2.overall_miss_latency::switch_cpus_1.inst      1089982                       # number of overall miss cycles
system.l2.overall_miss_latency::switch_cpus_1.data  78632481914                       # number of overall miss cycles
system.l2.overall_miss_latency::total     78633571896                       # number of overall miss cycles
system.l2.ReadReq_accesses::switch_cpus_1.inst           14                       # number of ReadReq accesses(hits+misses)
system.l2.ReadReq_accesses::switch_cpus_1.data      1049803                       # number of ReadReq accesses(hits+misses)
system.l2.ReadReq_accesses::total             1049817                       # number of ReadReq accesses(hits+misses)
system.l2.Writeback_accesses::writebacks           90                       # number of Writeback accesses(hits+misses)
system.l2.Writeback_accesses::total                90                       # number of Writeback accesses(hits+misses)
system.l2.demand_accesses::switch_cpus_1.inst           14                       # number of demand (read+write) accesses
system.l2.demand_accesses::switch_cpus_1.data      1049803                       # number of demand (read+write) accesses
system.l2.demand_accesses::total              1049817                       # number of demand (read+write) accesses
system.l2.overall_accesses::switch_cpus_1.inst           14                       # number of overall (read+write) accesses
system.l2.overall_accesses::switch_cpus_1.data      1049803                       # number of overall (read+write) accesses
system.l2.overall_accesses::total             1049817                       # number of overall (read+write) accesses
system.l2.ReadReq_miss_rate::switch_cpus_1.inst            1                       # miss rate for ReadReq accesses
system.l2.ReadReq_miss_rate::switch_cpus_1.data     0.999946                       # miss rate for ReadReq accesses
system.l2.ReadReq_miss_rate::total           0.999946                       # miss rate for ReadReq accesses
system.l2.demand_miss_rate::switch_cpus_1.inst            1                       # miss rate for demand accesses
system.l2.demand_miss_rate::switch_cpus_1.data     0.999946                       # miss rate for demand accesses
system.l2.demand_miss_rate::total            0.999946                       # miss rate for demand accesses
system.l2.overall_miss_rate::switch_cpus_1.inst            1                       # miss rate for overall accesses
system.l2.overall_miss_rate::switch_cpus_1.data     0.999946                       # miss rate for overall accesses
system.l2.overall_miss_rate::total           0.999946                       # miss rate for overall accesses
system.l2.ReadReq_avg_miss_latency::switch_cpus_1.inst 77855.857143                       # average ReadReq miss latency
system.l2.ReadReq_avg_miss_latency::switch_cpus_1.data 74906.198179                       # average ReadReq miss latency
system.l2.ReadReq_avg_miss_latency::total 74906.237517                       # average ReadReq miss latency
system.l2.demand_avg_miss_latency::switch_cpus_1.inst 77855.857143                       # average overall miss latency
system.l2.demand_avg_miss_latency::switch_cpus_1.data 74906.198179                       # average overall miss latency
system.l2.demand_avg_miss_latency::total 74906.237517                       # average overall miss latency
system.l2.overall_avg_miss_latency::switch_cpus_1.inst 77855.857143                       # average overall miss latency
system.l2.overall_avg_miss_latency::switch_cpus_1.data 74906.198179                       # average overall miss latency
system.l2.overall_avg_miss_latency::total 74906.237517                       # average overall miss latency
system.l2.blocked_cycles::no_mshrs                  0                       # number of cycles access was blocked
system.l2.blocked_cycles::no_targets                0                       # number of cycles access was blocked
system.l2.blocked::no_mshrs                         0                       # number of cycles access was blocked
system.l2.blocked::no_targets                       0                       # number of cycles access was blocked
system.l2.avg_blocked_cycles::no_mshrs            0                       # average number of cycles each access was blocked
system.l2.avg_blocked_cycles::no_targets          0                       # average number of cycles each access was blocked
system.l2.fast_writes                               0                       # number of fast writes performed
system.l2.cache_copies                              0                       # number of cache copies performed
system.l2.writebacks::writebacks                   90                       # number of writebacks
system.l2.writebacks::total                        90                       # number of writebacks
system.l2.ReadReq_mshr_misses::switch_cpus_1.inst           14                       # number of ReadReq MSHR misses
system.l2.ReadReq_mshr_misses::switch_cpus_1.data      1049746                       # number of ReadReq MSHR misses
system.l2.ReadReq_mshr_misses::total          1049760                       # number of ReadReq MSHR misses
system.l2.demand_mshr_misses::switch_cpus_1.inst           14                       # number of demand (read+write) MSHR misses
system.l2.demand_mshr_misses::switch_cpus_1.data      1049746                       # number of demand (read+write) MSHR misses
system.l2.demand_mshr_misses::total           1049760                       # number of demand (read+write) MSHR misses
system.l2.overall_mshr_misses::switch_cpus_1.inst           14                       # number of overall MSHR misses
system.l2.overall_mshr_misses::switch_cpus_1.data      1049746                       # number of overall MSHR misses
system.l2.overall_mshr_misses::total          1049760                       # number of overall MSHR misses
system.l2.ReadReq_mshr_miss_latency::switch_cpus_1.inst       970930                       # number of ReadReq MSHR miss cycles
system.l2.ReadReq_mshr_miss_latency::switch_cpus_1.data  69722652764                       # number of ReadReq MSHR miss cycles
system.l2.ReadReq_mshr_miss_latency::total  69723623694                       # number of ReadReq MSHR miss cycles
system.l2.demand_mshr_miss_latency::switch_cpus_1.inst       970930                       # number of demand (read+write) MSHR miss cycles
system.l2.demand_mshr_miss_latency::switch_cpus_1.data  69722652764                       # number of demand (read+write) MSHR miss cycles
system.l2.demand_mshr_miss_latency::total  69723623694                       # number of demand (read+write) MSHR miss cycles
system.l2.overall_mshr_miss_latency::switch_cpus_1.inst       970930                       # number of overall MSHR miss cycles
system.l2.overall_mshr_miss_latency::switch_cpus_1.data  69722652764                       # number of overall MSHR miss cycles
system.l2.overall_mshr_miss_latency::total  69723623694                       # number of overall MSHR miss cycles
system.l2.ReadReq_mshr_miss_rate::switch_cpus_1.inst            1                       # mshr miss rate for ReadReq accesses
system.l2.ReadReq_mshr_miss_rate::switch_cpus_1.data     0.999946                       # mshr miss rate for ReadReq accesses
system.l2.ReadReq_mshr_miss_rate::total      0.999946                       # mshr miss rate for ReadReq accesses
system.l2.demand_mshr_miss_rate::switch_cpus_1.inst            1                       # mshr miss rate for demand accesses
system.l2.demand_mshr_miss_rate::switch_cpus_1.data     0.999946                       # mshr miss rate for demand accesses
system.l2.demand_mshr_miss_rate::total       0.999946                       # mshr miss rate for demand accesses
system.l2.overall_mshr_miss_rate::switch_cpus_1.inst            1                       # mshr miss rate for overall accesses
system.l2.overall_mshr_miss_rate::switch_cpus_1.data     0.999946                       # mshr miss rate for overall accesses
system.l2.overall_mshr_miss_rate::total      0.999946                       # mshr miss rate for overall accesses
system.l2.ReadReq_avg_mshr_miss_latency::switch_cpus_1.inst 69352.142857                       # average ReadReq mshr miss latency
system.l2.ReadReq_avg_mshr_miss_latency::switch_cpus_1.data 66418.593416                       # average ReadReq mshr miss latency
system.l2.ReadReq_avg_mshr_miss_latency::total 66418.632539                       # average ReadReq mshr miss latency
system.l2.demand_avg_mshr_miss_latency::switch_cpus_1.inst 69352.142857                       # average overall mshr miss latency
system.l2.demand_avg_mshr_miss_latency::switch_cpus_1.data 66418.593416                       # average overall mshr miss latency
system.l2.demand_avg_mshr_miss_latency::total 66418.632539                       # average overall mshr miss latency
system.l2.overall_avg_mshr_miss_latency::switch_cpus_1.inst 69352.142857                       # average overall mshr miss latency
system.l2.overall_avg_mshr_miss_latency::switch_cpus_1.data 66418.593416                       # average overall mshr miss latency
system.l2.overall_avg_mshr_miss_latency::total 66418.632539                       # average overall mshr miss latency
system.l2.no_allocate_misses                        0                       # Number of misses that were no-allocate
system.membus.trans_dist::ReadReq             1049760                       # Transaction distribution
system.membus.trans_dist::ReadResp            1049760                       # Transaction distribution
system.membus.trans_dist::Writeback                90                       # Transaction distribution
system.membus.pkt_count_system.l2.mem_side::system.mem_ctrls.port      2099610                       # Packet count per connected master and slave (bytes)
system.membus.pkt_count_system.l2.mem_side::total      2099610                       # Packet count per connected master and slave (bytes)
system.membus.pkt_count::total                2099610                       # Packet count per connected master and slave (bytes)
system.membus.pkt_size_system.l2.mem_side::system.mem_ctrls.port     67190400                       # Cumulative packet size per connected master and slave (bytes)
system.membus.pkt_size_system.l2.mem_side::total     67190400                       # Cumulative packet size per connected master and slave (bytes)
system.membus.pkt_size::total                67190400                       # Cumulative packet size per connected master and slave (bytes)
system.membus.snoops                                0                       # Total snoops (count)
system.membus.snoop_fanout::samples           1049850                       # Request fanout histogram
system.membus.snoop_fanout::mean                    0                       # Request fanout histogram
system.membus.snoop_fanout::stdev                   0                       # Request fanout histogram
system.membus.snoop_fanout::underflows              0      0.00%      0.00% # Request fanout histogram
system.membus.snoop_fanout::0                 1049850    100.00%    100.00% # Request fanout histogram
system.membus.snoop_fanout::1                       0      0.00%    100.00% # Request fanout histogram
system.membus.snoop_fanout::overflows               0      0.00%    100.00% # Request fanout histogram
system.membus.snoop_fanout::min_value               0                       # Request fanout histogram
system.membus.snoop_fanout::max_value               0                       # Request fanout histogram
[...]
system.cpu.iq.FU_type_0::SimdMult            0      0.00%     65.12% # Type of FU issued
system.cpu.iq.FU_type_0::SimdMultAcc            0      0.00%     65.12% # Type of FU issued
system.cpu.iq.FU_type_0::SimdShift            0      0.00%     65.12% # Type of FU issued
system.cpu.iq.FU_type_0::SimdShiftAcc            0      0.00%     65.12% # Type of FU issued
system.cpu.iq.FU_type_0::SimdSqrt            0      0.00%     65.12% # Type of FU issued
system.cpu.iq.FU_type_0::SimdFloatAdd            0      0.00%     65.12% # Type of FU issued
system.cpu.iq.FU_type_0::SimdFloatAlu            0      0.00%     65.12% # Type of FU issued
system.cpu.iq.FU_type_0::SimdFloatCmp            0      0.00%     65.12% # Type of FU issued
system.cpu.iq.FU_type_0::SimdFloatCvt            0      0.00%     65.12% # Type of FU issued
system.cpu.iq.FU_type_0::SimdFloatDiv            0      0.00%     65.12% # Type of FU issued
system.cpu.iq.FU_type_0::SimdFloatMisc            0      0.00%     65.12% # Type of FU issued
system.cpu.iq.FU_type_0::SimdFloatMult            0      0.00%     65.12% # Type of FU issued
system.cpu.iq.FU_type_0::SimdFloatMultAcc            0      0.00%     65.12% # Type of FU issued
system.cpu.iq.FU_type_0::SimdFloatSqrt            0      0.00%     65.12% # Type of FU issued
system.cpu.iq.FU_type_0::MemRead     13661110     30.23%     95.35% # Type of FU issued
system.cpu.iq.FU_type_0::MemWrite      2101754      4.65%    100.00% # Type of FU issued
system.cpu.iq.FU_type_0::IprAccess            0      0.00%    100.00% # Type of FU issued
system.cpu.iq.FU_type_0::InstPrefetch            0      0.00%    100.00% # Type of FU issued
system.cpu.iq.FU_type_0::total     45185286                       # Type of FU issued
system.cpu.iq.rate                 0.157708                       # Inst issue rate
system.cpu.iq.fu_busy_cnt              4937                       # FU busy when requested
system.cpu.iq.fu_busy_rate         0.000109                       # FU busy rate (busy events/executed inst)
system.cpu.iq.int_inst_queue_reads    376886735                       # Number of integer instruction queue reads
system.cpu.iq.int_inst_queue_writes     45323903                       # Number of integer instruction queue writes
system.cpu.iq.int_inst_queue_wakeup_accesses     45183881                       # Number of integer instruction queue wakeup accesses
system.cpu.iq.fp_inst_queue_reads           16                       # Number of floating instruction queue reads
system.cpu.iq.fp_inst_queue_writes           84                       # Number of floating instruction queue writes
system.cpu.iq.fp_inst_queue_wakeup_accesses            8                       # Number of floating instruction queue wakeup accesses
system.cpu.iq.int_alu_accesses     45190197                       # Number of integer alu accesses
system.cpu.iq.fp_alu_accesses             8                       # Number of floating point alu accesses
system.cpu.iew.lsq.thread0.forwLoads      4208003                       # Number of loads that had data forwarded from stores
system.cpu.iew.lsq.thread0.invAddrLoads            0                       # Number of loads ignored due to an invalid address
system.cpu.iew.lsq.thread0.squashedLoads        31811                       # Number of loads squashed
system.cpu.iew.lsq.thread0.ignoredResponses            2                       # Number of memory responses ignored because the instruction is squashed
system.cpu.iew.lsq.thread0.memOrderViolation           44                       # Number of memory ordering violations
system.cpu.iew.lsq.thread0.squashedStores         4731                       # Number of stores squashed
system.cpu.iew.lsq.thread0.invAddrSwpfs            0                       # Number of software prefetches ignored due to an invalid address
system.cpu.iew.lsq.thread0.blockedLoads            0                       # Number of blocked loads due to partial load-store forwarding
system.cpu.iew.lsq.thread0.rescheduledLoads            0                       # Number of loads that were rescheduled
system.cpu.iew.lsq.thread0.cacheBlocked            0                       # Number of times an access to memory failed due to the cache being blocked
system.cpu.iew.iewIdleCycles              0                       # Number of cycles IEW is idle
system.cpu.iew.iewSquashCycles         1164                       # Number of cycles IEW is squashing
system.cpu.iew.iewBlockCycles         12311                       # Number of cycles IEW is blocking
system.cpu.iew.iewUnblockCycles    166771777                       # Number of cycles IEW is unblocking
system.cpu.iew.iewDispatchedInsts     45220237                       # Number of instructions dispatched to IQ
system.cpu.iew.iewDispSquashedInsts            0                       # Number of squashed instructions skipped by dispatch
system.cpu.iew.iewDispLoadInsts     13666402                       # Number of dispatched load instructions
system.cpu.iew.iewDispStoreInsts      2103937                       # Number of dispatched store instructions
system.cpu.iew.iewDispNonSpecInsts            1                       # Number of dispatched non-speculative instructions
system.cpu.iew.iewIQFullEvents            0                       # Number of times the IQ has become full, causing a stall
system.cpu.iew.iewLSQFullEvents    166771782                       # Number of times the LSQ has become full, causing a stall
system.cpu.iew.memOrderViolationEvents           44                       # Number of memory order violations
system.cpu.iew.predictedTakenIncorrect         1030                       # Number of branches that were predicted taken incorrectly
system.cpu.iew.predictedNotTakenIncorrect          122                       # Number of branches that were predicted not taken incorrectly
system.cpu.iew.branchMispredicts         1152                       # Number of branch mispredicts detected at execute
system.cpu.iew.iewExecutedInsts     45184026                       # Number of executed instructions
system.cpu.iew.iewExecLoadInsts     13660028                       # Number of load instructions executed
system.cpu.iew.iewExecSquashedInsts         1258                       # Number of squashed instructions skipped in execute
system.cpu.iew.exec_swp                   0                       # number of swp insts executed
system.cpu.iew.exec_nop                   0                       # number of nop insts executed
system.cpu.iew.exec_refs           15761770                       # number of memory reference insts executed
system.cpu.iew.exec_branches        1051941                       # Number of branches executed
system.cpu.iew.exec_stores          2101742                       # Number of stores executed
system.cpu.iew.exec_rate           0.157703                       # Inst execution rate
system.cpu.iew.wb_sent             45183948                       # cumulative count of insts sent to commit
system.cpu.iew.wb_count            45183889                       # cumulative count of insts written-back
system.cpu.iew.wb_producers        37565586                       # num instructions producing a value
system.cpu.iew.wb_consumers        60417635                       # num instructions consuming a value
system.cpu.iew.wb_penalized               0                       # number of instrctions required to write to 'other' IQ
system.cpu.iew.wb_rate             0.157703                       # insts written-back per cycle
system.cpu.iew.wb_fanout           0.621765                       # average fanout of values written-back
system.cpu.iew.wb_penalized_rate            0                       # fraction of instructions written-back that wrote to 'other' IQ
system.cpu.commit.commitSquashedInsts       103726                       # The number of squashed insts skipped by commit
system.cpu.commit.branchMispredicts         1122                       # The number of times a branch was mispredicted
system.cpu.commit.committed_per_cycle::samples    286497766                       # Number of insts commited each cycle
system.cpu.commit.committed_per_cycle::mean     0.157476                       # Number of insts commited each cycle
system.cpu.commit.committed_per_cycle::stdev     0.949538                       # Number of insts commited each cycle
system.cpu.commit.committed_per_cycle::underflows            0      0.00%      0.00% # Number of insts commited each cycle
system.cpu.commit.committed_per_cycle::0    273903389     95.60%     95.60% # Number of insts commited each cycle
system.cpu.commit.committed_per_cycle::1      5250233      1.83%     97.44% # Number of insts commited each cycle
system.cpu.commit.committed_per_cycle::2      1049596      0.37%     97.80% # Number of insts commited each cycle
system.cpu.commit.committed_per_cycle::3      2097173      0.73%     98.53% # Number of insts commited each cycle
system.cpu.commit.committed_per_cycle::4         1074      0.00%     98.54% # Number of insts commited each cycle
system.cpu.commit.committed_per_cycle::5           10      0.00%     98.54% # Number of insts commited each cycle
system.cpu.commit.committed_per_cycle::6         1078      0.00%     98.54% # Number of insts commited each cycle
system.cpu.commit.committed_per_cycle::7      2097019      0.73%     99.27% # Number of insts commited each cycle
system.cpu.commit.committed_per_cycle::8      2098194      0.73%    100.00% # Number of insts commited each cycle
system.cpu.commit.committed_per_cycle::overflows            0      0.00%    100.00% # Number of insts commited each cycle
system.cpu.commit.committed_per_cycle::min_value            0                       # Number of insts commited each cycle
system.cpu.commit.committed_per_cycle::max_value            8                       # Number of insts commited each cycle
system.cpu.commit.committed_per_cycle::total    286497766                       # Number of insts commited each cycle
system.cpu.commit.committedInsts     36711435                       # Number of instructions committed
system.cpu.commit.committedOps     45116443                       # Number of ops (including micro ops) committed
system.cpu.commit.swp_count               0                       # Number of s/w prefetches committed
system.cpu.commit.refs             15733765                       # Number of memory references committed
system.cpu.commit.loads            13634563                       # Number of loads committed
system.cpu.commit.membars                 0                       # Number of memory barriers committed
system.cpu.commit.branches          1051651                       # Number of branches committed
system.cpu.commit.fp_insts                0                       # Number of committed floating point instructions.
system.cpu.commit.int_insts        45116443                       # Number of committed integer instructions.
system.cpu.commit.function_calls            0                       # Number of function calls committed.
system.cpu.commit.op_class_0::No_OpClass            0      0.00%      0.00% # Class of committed instruction
system.cpu.commit.op_class_0::IntAlu     29382678     65.13%     65.13% # Class of committed instruction
system.cpu.commit.op_class_0::IntMult            0      0.00%     65.13% # Class of committed instruction
system.cpu.commit.op_class_0::IntDiv            0      0.00%     65.13% # Class of committed instruction
system.cpu.commit.op_class_0::FloatAdd            0      0.00%     65.13% # Class of committed instruction
system.cpu.commit.op_class_0::FloatCmp            0      0.00%     65.13% # Class of committed instruction
system.cpu.commit.op_class_0::FloatCvt            0      0.00%     65.13% # Class of committed instruction
system.cpu.commit.op_class_0::FloatMult            0      0.00%     65.13% # Class of committed instruction
system.cpu.commit.op_class_0::FloatDiv            0      0.00%     65.13% # Class of committed instruction
system.cpu.commit.op_class_0::FloatSqrt            0      0.00%     65.13% # Class of committed instruction
system.cpu.commit.op_class_0::SimdAdd            0      0.00%     65.13% # Class of committed instruction
system.cpu.commit.op_class_0::SimdAddAcc            0      0.00%     65.13% # Class of committed instruction
system.cpu.commit.op_class_0::SimdAlu            0      0.00%     65.13% # Class of committed instruction
system.cpu.commit.op_class_0::SimdCmp            0      0.00%     65.13% # Class of committed instruction
system.cpu.commit.op_class_0::SimdCvt            0      0.00%     65.13% # Class of committed instruction
system.cpu.commit.op_class_0::SimdMisc            0      0.00%     65.13% # Class of committed instruction
system.cpu.commit.op_class_0::SimdMult            0      0.00%     65.13% # Class of committed instruction
system.cpu.commit.op_class_0::SimdMultAcc            0      0.00%     65.13% # Class of committed instruction
system.cpu.commit.op_class_0::SimdShift            0      0.00%     65.13% # Class of committed instruction
system.cpu.commit.op_class_0::SimdShiftAcc            0      0.00%     65.13% # Class of committed instruction
system.cpu.commit.op_class_0::SimdSqrt            0      0.00%     65.13% # Class of committed instruction
system.cpu.commit.op_class_0::SimdFloatAdd            0      0.00%     65.13% # Class of committed instruction
system.cpu.commit.op_class_0::SimdFloatAlu            0      0.00%     65.13% # Class of committed instruction
system.cpu.commit.op_class_0::SimdFloatCmp            0      0.00%     65.13% # Class of committed instruction
system.cpu.commit.op_class_0::SimdFloatCvt            0      0.00%     65.13% # Class of committed instruction
system.cpu.commit.op_class_0::SimdFloatDiv            0      0.00%     65.13% # Class of committed instruction
system.cpu.commit.op_class_0::SimdFloatMisc            0      0.00%     65.13% # Class of committed instruction
system.cpu.commit.op_class_0::SimdFloatMult            0      0.00%     65.13% # Class of committed instruction
system.cpu.commit.op_class_0::SimdFloatMultAcc            0      0.00%     65.13% # Class of committed instruction
system.cpu.commit.op_class_0::SimdFloatSqrt            0      0.00%     65.13% # Class of committed instruction
system.cpu.commit.op_class_0::MemRead     13634563     30.22%     95.35% # Class of committed instruction
system.cpu.commit.op_class_0::MemWrite      2099202      4.65%    100.00% # Class of committed instruction
system.cpu.commit.op_class_0::IprAccess            0      0.00%    100.00% # Class of committed instruction
system.cpu.commit.op_class_0::InstPrefetch            0      0.00%    100.00% # Class of committed instruction
system.cpu.commit.op_class_0::total     45116443                       # Class of committed instruction
system.cpu.commit.bw_lim_events      2098194                       # number cycles where commit BW limit reached
system.cpu.rob.rob_reads          329619741                       # The number of ROB reads
system.cpu.rob.rob_writes          90453902                       # The number of ROB writes
system.cpu.timesIdled                     9                       # Number of times that the entire CPU went into an idle state and unscheduled itself
system.cpu.idleCycles                  1536                       # Total number of cycles that the CPU has spent unscheduled due to idling
system.cpu.committedInsts          36711435                       # Number of Instructions Simulated
system.cpu.committedOps            45116443                       # Number of Ops (including micro ops) Simulated
system.cpu.cpi                     7.804456                       # CPI: Cycles Per Instruction
system.cpu.cpi_total               7.804456                       # CPI: Total CPI of All Threads
system.cpu.ipc                     0.128132                       # IPC: Instructions Per Cycle
system.cpu.ipc_total               0.128132                       # IPC: Total IPC of All Threads
system.cpu.int_regfile_reads       81928290                       # number of integer regfile reads
system.cpu.int_regfile_writes      42030194                       # number of integer regfile writes
system.cpu.fp_regfile_writes              8                       # number of floating regfile writes
system.cpu.cc_regfile_reads        21008609                       # number of cc regfile reads
system.cpu.cc_regfile_writes       16803182                       # number of cc regfile writes
system.cpu.misc_regfile_reads      17868075                       # number of misc regfile reads
system.tol2bus.trans_dist::ReadReq            1049817                       # Transaction distribution
system.tol2bus.trans_dist::ReadResp           1049817                       # Transaction distribution
system.tol2bus.trans_dist::Writeback               90                       # Transaction distribution
system.tol2bus.pkt_count_system.cpu.icache.mem_side::system.l2.cpu_side           28                       # Packet count per connected master and slave (bytes)
system.tol2bus.pkt_count_system.cpu.dcache.mem_side::system.l2.cpu_side      2099696                       # Packet count per connected master and slave (bytes)
system.tol2bus.pkt_count::total               2099724                       # Packet count per connected master and slave (bytes)
system.tol2bus.pkt_size_system.cpu.icache.mem_side::system.l2.cpu_side          896                       # Cumulative packet size per connected master and slave (bytes)
system.tol2bus.pkt_size_system.cpu.dcache.mem_side::system.l2.cpu_side     67193152                       # Cumulative packet size per connected master and slave (bytes)
system.tol2bus.pkt_size::total               67194048                       # Cumulative packet size per connected master and slave (bytes)
system.tol2bus.snoops                               0                       # Total snoops (count)
system.tol2bus.snoop_fanout::samples          1049907                       # Request fanout histogram
system.tol2bus.snoop_fanout::mean                   3                       # Request fanout histogram
system.tol2bus.snoop_fanout::stdev                  0                       # Request fanout histogram
system.tol2bus.snoop_fanout::underflows             0      0.00%      0.00% # Request fanout histogram
system.tol2bus.snoop_fanout::0                      0      0.00%      0.00% # Request fanout histogram
system.tol2bus.snoop_fanout::1                      0      0.00%      0.00% # Request fanout histogram
system.tol2bus.snoop_fanout::2                      0      0.00%      0.00% # Request fanout histogram
system.tol2bus.snoop_fanout::3                1049907    100.00%    100.00% # Request fanout histogram
system.tol2bus.snoop_fanout::4                      0      0.00%    100.00% # Request fanout histogram
system.tol2bus.snoop_fanout::overflows              0      0.00%    100.00% # Request fanout histogram
system.tol2bus.snoop_fanout::min_value              3                       # Request fanout histogram
system.tol2bus.snoop_fanout::max_value              3                       # Request fanout histogram
system.tol2bus.snoop_fanout::total            1049907                       # Request fanout histogram
system.tol2bus.reqLayer0.occupancy          308725578                       # Layer occupancy (ticks)
system.tol2bus.reqLayer0.utilization              0.4                       # Layer utilization (%)
system.tol2bus.respLayer0.occupancy             13694                       # Layer occupancy (ticks)
system.tol2bus.respLayer0.utilization             0.0                       # Layer utilization (%)
system.tol2bus.respLayer1.occupancy        1072396318                       # Layer occupancy (ticks)
system.tol2bus.respLayer1.utilization             1.3                       # Layer utilization (%)

---------- End Simulation Statistics   ----------
